; Filename: ./wdn/Anytown.inp
; WNTR: 1.2.0
; Created: 2026-04-01 10:53:55
[TITLE]
Anytown network model

[JUNCTIONS]
;ID                      Elevation       Demand Pattern                 
 20                                 6             9.6 1                          ;
 30                                15             2.4 1                          ;
 40                                15             2.4 1                          ;
 50                                15             2.4 1                          ;
 55                                24            38.4 1                          ;
 60                                15             2.4 1                          ;
 70                                15             2.4 1                          ;
 75                                24            38.4 1                          ;
 80                                15             2.4 1                          ;
 90                                15             2.4 1                          ;
 100                               15             2.4 1                          ;
 110                               15             2.4 1                          ;
 115                               24            38.4 1                          ;
 120                               36            57.6 1                          ;
 130                               36            57.6 1                          ;
 140                               24            38.4 1                          ;
 150                               36            57.6 1                          ;
 160                               36            57.6 1                          ;
 170                               36            57.6 1                          ;

[RESERVOIRS]
;ID                                   Head                  Pattern
 180                              120                            ;

[TANKS]
;ID                              Elevation           Init Level            Min Level            Max Level             Diameter           Min Volume Volume Curve         Overflow            

[PIPES]
;ID                   Node1                Node2                              Length             Diameter            Roughness           Minor Loss               Status
 2                    20                   70                              3657             400              70               0                 Open   ;
 4                    20                   30                              3657             300             120               0                 Open   ;
 6                    20                   110                             3657             300              70               0                 Open   ;
 8                    70                   30                              2743             300              70               0                 Open   ;
 10                   70                   100                              182             300              70               0                 Open   ;
 12                   70                   90                               182             250              70               0                 Open   ;
 14                   70                   60                               182             300              70               0                 Open   ;
 16                   60                   90                               182             250              70               0                 Open   ;
 18                   60                   80                               182             300              70               0                 Open   ;
 20                   90                   80                               182             250              70               0                 Open   ;
 22                   90                   150                              182             250              70               0                 Open   ;
 24                   90                   100                              182             250              70               0                 Open   ;
 26                   100                  150                              182             300              70               0                 Open   ;
 28                   80                   150                              182             250              70               0                 Open   ;
 30                   30                   60                               182             250             120               0                 Open   ;
 32                   30                   40                               182             250             120               0                 Open   ;
 34                   30                   50                               182             250             120               0                 Open   ;
 36                   40                   50                               182             250             120               0                 Open   ;
 38                   50                   80                               182             250             120               0                 Open   ;
 40                   80                   140                              182             250             120               0                 Open   ;
 42                   150                  140                              182             200             120               0                 Open   ;
 44                   150                  160                              182             200             120               0                 Open   ;
 46                   100                  160                              182             200             120               0                 Open   ;
 48                   100                  110                              182             200              70               0                 Open   ;
 50                   110                  160                              182             250             120               0                 Open   ;
 52                   110                  120                              182             200             120               0                 Open   ;
 54                   160                  120                              182             300             130               0                 Open   ;
 56                   120                  130                              182             200             120               0                 Open   ;
 58                   160                  130                              182             250             120               0                 Open   ;
 60                   130                  170                              182             200             120               0                 Open   ;
 62                   140                  160                              182             200             120               0                 Open   ;
 64                   140                  170                             3657             200             120               0                 Open   ;
 66                   50                   140                             3657             200             120               0                 Open   ;
 68                   140                  115                             1828             300             130               0                 Open   ;
 70                   140                  75                              1828             300             130               0                 Open   ;
 72                   75                   115                             1828             300             130               0                 Open   ;
 74                   50                   55                              1828             300             130               0                 Open   ;
 76                   55                   75                              1828             300             130               0                 Open   ;
 1                    180                  20                               762             600             100               0                 Open   ;

[PUMPS]
;ID                   Node1                Node2                Properties          

[VALVES]
;ID                   Node1                Node2                            Diameter Type              Setting           Minor Loss

[TAGS]
;type      name       tag       

[DEMANDS]
;ID        Demand     Pattern   

[STATUS]
;ID        Setting   

[PATTERNS]
;ID        Multipliers

1 0.400000

[CURVES]
;ID         X-Value      Y-Value     

[CONTROLS]

[RULES]

[ENERGY]
GLOBAL EFFICIENCY      65.0000
GLOBAL PRICE           0.0000
DEMAND CHARGE          0.0000

[EMITTERS]
;ID        Flow coefficient

[QUALITY]

[SOURCES]
;Node      Type       Quality    Pattern   

[REACTIONS]
;Type           Pipe/Tank               Coefficient

 ORDER BULK 1
 ORDER TANK 1
 ORDER WALL 1
 GLOBAL BULK 0.0000    
 GLOBAL WALL 0.0000    
 LIMITING POTENTIAL 0.0000    
 ROUGHNESS CORRELATION 0.0000    

[MIXING]
;Tank ID             Model Fraction

[TIMES]
DURATION             00:00:00
HYDRAULIC TIMESTEP   01:00:00
QUALITY TIMESTEP     00:05:00
PATTERN TIMESTEP     01:00:00
PATTERN START        00:00:00
REPORT TIMESTEP      01:00:00
REPORT START         00:00:00
START CLOCKTIME      00:00:00 AM
RULE TIMESTEP        00:06:00
STATISTIC            NONE      

[REPORT]
STATUS     YES
SUMMARY    NO
PAGE       0

[OPTIONS]
UNITS                LPS                 
HEADLOSS             H-W                 
SPECIFIC GRAVITY     1
VISCOSITY            1
TRIALS               40
ACCURACY             0.001
CHECKFREQ            2
MAXCHECK             10
UNBALANCED           CONTINUE 10
PATTERN              1                   
DEMAND MULTIPLIER    1
EMITTER EXPONENT     0.5
QUALITY              Chlorine mg/L
DIFFUSIVITY          1
TOLERANCE            0.01

[COORDINATES]
;Node      X-Coord    Y-Coord   
20               6391.600000000       4257.810000000
30               6723.630000000       6181.640000000
40               5327.150000000       7500.000000000
50               3959.960000000       7050.780000000
55               3081.050000000       7431.640000000
60               5366.210000000       6044.920000000
70               5473.630000000       4931.640000000
75               2270.510000000       7089.840000000
80               4340.820000000       6230.470000000
90               4838.870000000       5410.160000000
100              4428.710000000       4765.630000000
110              4125.980000000       3945.310000000
115              1655.270000000       6787.110000000
120              3413.090000000       3281.250000000
130              2055.660000000       3896.480000000
140              2124.020000000       6015.630000000
150              3891.600000000       5566.410000000
160              2895.510000000       4765.630000000
170               825.200000000       5126.950000000
180              7241.210000000       3750.000000000

[VERTICES]
;Link      X-Coord    Y-Coord   
62               2133.790000000       6064.450000000

[LABELS]

[BACKDROP]
DIMENSIONS    0.000    0.000    10000.000    10000.000
UNITS    NONE
OFFSET    0.00    0.00

[END]
