[TITLE]


[JUNCTIONS]
;ID              	Elev        	Demand      	Pattern         
 2               	730.39      	5.70        	1               	;
 3               	730.59      	.69         	1               	;
 4               	730.32      	2.60        	1               	;
 5               	730.42      	2.61        	1               	;
 6               	727.32      	1.09        	1               	;
 7               	728.61      	3.11        	1               	;
 8               	721.85      	3.42        	1               	;
 9               	722.12      	2.60        	1               	;
 10              	721.60      	3.10        	1               	;
 11              	722.1       	1.46        	1               	;
 12              	720.55      	2.17        	1               	;
 13              	713.41      	3.91        	1               	;
 14              	711.62      	0.99        	1               	;
 15              	705.12      	0.99        	1               	;
 16              	704.86      	6.07        	1               	;
 17              	695.83      	0.35        	1               	;
 18              	699.93      	0.54        	1               	;
 19              	699.75      	4.33        	1               	;
 20              	694.51      	7.46        	1               	;
 21              	705.19      	0.33        	1               	;
 22              	704.65      	2.82        	1               	;
 23              	708.14      	0.20        	1               	;
 24              	707.54      	1.75        	1               	;
 25              	708.3       	1.86        	1               	;
 26              	707.91      	1.95        	1               	;
 27              	708.29      	0.22        	1               	;
 28              	708.51      	2.44        	1               	;
 29              	706.02      	4.74        	1               	;
 30              	705.58      	2.43        	1               	;
 31              	701.64      	5.22        	1               	;
 32              	700.79      	3.89        	1               	;
 33              	699.42      	0.85        	1               	;
 34              	687.61      	3.08        	1               	;
 35              	706.12      	0.95        	1               	;
 36              	705.95      	0.92        	1               	;
 37              	707.58      	0.29        	1               	;
 38              	695.22      	2.78        	1               	;
 39              	694.24      	3.25        	1               	;
 40              	696.77      	2.93        	1               	;
 41              	694.39      	3.84        	1               	;
 42              	696.38      	2.67        	1               	;
 43              	697.58      	6.89        	1               	;
 44              	696.19      	3.65        	1               	;
 45              	710.22      	1.88        	1               	;
 46              	699.68      	1.83        	1               	;
 47              	698.88      	1.49        	1               	;
 48              	697.04      	1.37        	1               	;
 49              	697.96      	1.18        	1               	;
 50              	674.86      	2.84        	1               	;
 51              	673.41      	3.65        	1               	;
 52              	661.85      	7.81        	1               	;
 53              	660.13      	6.51        	1               	;
 54              	693.15      	3.37        	1               	;
 55              	695.36      	3.23        	1               	;
 56              	686.32      	1.10        	1               	;
 57              	672.6       	1.13        	1               	;
 58              	673.06      	2.30        	1               	;
 59              	669         	5.81        	1               	;
 60              	683.5       	8.40        	1               	;
 61              	665.85      	1.93        	1               	;
 62              	699.8       	4.50        	1               	;
 63              	690.58      	10.28       	1               	;
 64              	697.03      	2.74        	1               	;
 65              	698.59      	2.36        	1               	;
 66              	707.37      	4.34        	1               	;
 67              	706.98      	7.55        	1               	;
 68              	682.69      	3.47        	1               	;
 69              	693.37      	0.40        	1               	;
 70              	687.59      	1.41        	1               	;
 71              	674.49      	1.23        	1               	;
 72              	679.22      	1.01        	1               	;
 73              	693.75      	1.81        	1               	;

[RESERVOIRS]
;ID              	Head        	Pattern         
 74              	750         	                	;

[TANKS]
;ID              	Elevation   	InitLevel   	MinLevel    	MaxLevel    	Diameter    	MinVol      	VolCurve        	Overflow

[PIPES]
;ID              	Node1           	Node2           	Length      	Diameter    	Roughness   	MinorLoss   	Status
 1               	52              	63              	600         	537.5058    	100         	0           	Open  	;
 2               	74              	3               	81.66       	268.6       	90          	0           	Open  	;
 3               	3               	2               	140.6       	213.2       	90          	0           	Open  	;
 4               	3               	4               	64.22       	383.8938    	100         	0           	Open  	;
 5               	4               	11              	426.3       	268.8       	100         	0           	Open  	;
 6               	9               	11              	40.71       	170.6       	95          	0           	Open  	;
 7               	2               	9               	476.69      	213.2       	100         	0           	Open  	;
 8               	43              	44              	78.38       	268.6       	100         	0           	Open  	;
 9               	4               	5               	118.7       	170.6       	100         	0           	Open  	;
 10              	5               	7               	268.2       	136.4       	100         	0           	Open  	;
 11              	7               	8               	326.23      	93.8        	100         	0           	Open  	;
 12              	6               	8               	244.01      	93.8        	90          	0           	Open  	;
 13              	7               	6               	180.1       	93.8        	100         	0           	Open  	;
 14              	8               	12              	166.53      	93.8        	90          	0           	Open  	;
 15              	10              	12              	129.12      	93.8        	100         	0           	Open  	;
 16              	11              	10              	27.42       	383.8938    	100         	0           	Open  	;
 17              	10              	13              	221.78      	383.8938    	100         	0           	Open  	;
 18              	13              	28              	206.08      	268.6       	100         	0           	Open  	;
 19              	28              	27              	41.84       	268.6       	100         	0           	Open  	;
 20              	27              	23              	77.92       	268.6       	110         	0           	Open  	;
 21              	25              	23              	25.66       	213.2       	105         	0           	Open  	;
 22              	13              	25              	223.97      	213.2       	95          	0           	Open  	;
 23              	28              	29              	271.35      	268.6       	100         	0           	Open  	;
 24              	14              	29              	241.99      	93.8        	105         	0           	Open  	;
 25              	29              	32              	213.2       	268.6       	100         	0           	Open  	;
 26              	32              	33              	199.52      	213.2       	95          	0           	Open  	;
 27              	27              	26              	40.52       	213.2       	95          	0           	Open  	;
 28              	26              	30              	225.57      	170.6       	100         	0           	Open  	;
 29              	30              	31              	186.63      	93.8        	90          	0           	Open  	;
 30              	32              	15              	212.88      	93.8        	90          	0           	Open  	;
 31              	41              	31              	397.71      	93.8        	95          	0           	Open  	;
 32              	40              	41              	178.84      	93.8        	100         	0           	Open  	;
 33              	30              	40              	339.28      	268.6       	100         	0           	Open  	;
 34              	39              	40              	147.12      	341.2       	100         	0           	Open  	;
 35              	38              	39              	48.44       	136.4       	100         	0           	Open  	;
 36              	26              	38              	544.53      	383.8938    	95          	0           	Open  	;
 37              	38              	42              	64.09       	136.4       	100         	0           	Open  	;
 38              	35              	42              	427.71      	268.6       	100         	0           	Open  	;
 39              	37              	36              	123.3       	341.2       	100         	0           	Open  	;
 40              	23              	37              	37.17       	268.6       	100         	0           	Open  	;
 41              	36              	35              	55.45       	93.8        	100         	0           	Open  	;
 42              	42              	43              	102.86      	341.2       	90          	0           	Open  	;
 43              	36              	43              	420.23      	537.5058    	100         	0           	Open  	;
 44              	25              	20              	385.64      	136.4       	100         	0           	Open  	;
 45              	20              	22              	272.7       	93.8        	95          	0           	Open  	;
 46              	22              	21              	62.57       	93.8        	100         	0           	Open  	;
 47              	21              	24              	104.78      	170.6       	100         	0           	Open  	;
 48              	20              	19              	590.38      	93.8        	100         	0           	Open  	;
 49              	44              	34              	301.94      	213.2       	100         	0           	Open  	;
 50              	34              	50              	394.95      	537.5058    	100         	0           	Open  	;
 51              	51              	50              	232.7       	537.50      	100         	0           	Open  	;
 52              	44              	51              	380.90      	268.6       	100         	0           	Open  	;
 53              	51              	52              	125.68      	170.6       	100         	0           	Open  	;
 54              	52              	53              	419.19      	93.8        	95          	0           	Open  	;
 55              	50              	60              	400         	341.2       	100         	0           	Open  	;
 56              	54              	63              	44.96       	213.2       	100         	0           	Open  	;
 57              	55              	54              	123.56      	213.2       	100         	0           	Open  	;
 58              	55              	68              	355.05      	93.8        	100         	0           	Open  	;
 59              	46              	49              	89.45       	136.4       	100         	0           	Open  	;
 60              	62              	46              	12          	136.4       	90          	0           	Open  	;
 61              	47              	62              	202.5       	341.2       	100         	0           	Open  	;
 62              	48              	47              	102.54      	341.2       	100         	0           	Open  	;
 63              	48              	64              	128.91      	93.8        	100         	0           	Open  	;
 64              	49              	64              	75.66       	93.8        	100         	0           	Open  	;
 65              	64              	54              	317.64      	93.8        	90          	0           	Open  	;
 66              	60              	48              	420         	383.8938    	100         	0           	Open  	;
 67              	65              	68              	269.96      	93.8        	90          	0           	Open  	;
 68              	46              	65              	200.89      	93.8        	95          	0           	Open  	;
 69              	62              	67              	480.99      	383.8938    	100         	0           	Open  	;
 70              	67              	66              	228.9       	93.8        	95          	0           	Open  	;
 71              	67              	45              	405.87      	341.2       	100         	0           	Open  	;
 72              	68              	71              	484.52      	93.8        	100         	0           	Open  	;
 73              	71              	70              	260.79      	93.8        	95          	0           	Open  	;
 74              	70              	69              	111.59      	93.8        	100         	0           	Open  	;
 75              	72              	70              	254         	93.8        	100         	0           	Open  	;
 76              	71              	72              	166.22      	93.8        	90          	0           	Open  	;
 77              	52              	59              	310         	93.8        	100         	0           	Open  	;
 78              	58              	57              	64.4        	93.8        	100         	0           	Open  	;
 79              	57              	61              	181.45      	93.8        	95          	0           	Open  	;
 80              	53              	61              	52.62       	170.6       	100         	0           	Open  	;
 81              	61              	73              	207.71      	106.6       	100         	0           	Open  	;
 82              	56              	73              	246.65      	93.8        	100         	0           	Open  	;
 83              	57              	56              	149.14      	106.6       	100         	0           	Open  	;
 84              	19              	17              	82.4        	93.8        	90          	0           	Open  	;
 85              	17              	18              	187.99      	93.88       	95          	0           	Open  	;
 86              	19              	18              	200.73      	93.8        	100         	0           	Open  	;
 87              	59              	58              	300         	213.2       	90          	0           	Open  	;
 88              	12              	14              	320         	136.4       	90          	0           	Open  	;
 89              	33              	16              	522.59      	170.6       	100         	0           	Open  	;
 90              	49              	55              	157.59      	136.4       	95          	0           	Open  	;

[PUMPS]
;ID              	Node1           	Node2           	Parameters

[VALVES]
;ID              	Node1           	Node2           	Diameter    	Type	Setting     	MinorLoss   

[TAGS]

[DEMANDS]
;Junction        	Demand      	Pattern         	Category

[STATUS]
;ID              	Status/Setting

[PATTERNS]
;ID              	Multipliers
;
 1               	.2          

[CURVES]
;ID              	X-Value     	Y-Value

[CONTROLS]








[RULES]








[ENERGY]
 Global Efficiency  	75
 Global Price       	0
 Demand Charge      	0

[EMITTERS]
;Junction        	Coefficient

[QUALITY]
;Node            	InitQual

[SOURCES]
;Node            	Type        	Quality     	Pattern

[REACTIONS]
;Type     	Pipe/Tank       	Coefficient


[REACTIONS]
 Order Bulk            	1
 Order Tank            	1
 Order Wall            	1
 Global Bulk           	0
 Global Wall           	0
 Limiting Potential    	0
 Roughness Correlation 	0

[MIXING]
;Tank            	Model

[TIMES]
 Duration           	0:00 
 Hydraulic Timestep 	1:00 
 Quality Timestep   	0:05 
 Pattern Timestep   	1:00 
 Pattern Start      	0:00 
 Report Timestep    	1:00 
 Report Start       	0:00 
 Start ClockTime    	12 am
 Statistic          	NONE

[REPORT]
 Status             	No
 Summary            	No
 Page               	0

[OPTIONS]
 Units              	LPS
 Headloss           	H-W
 Specific Gravity   	1
 Viscosity          	1
 Trials             	40
 Accuracy           	0.001
 CHECKFREQ          	2
 MAXCHECK           	10
 DAMPLIMIT          	0
 Unbalanced         	Continue 10
 Pattern            	1
 Demand Multiplier  	1
 Emitter Exponent   	0.5
 Quality            	None mg/L
 Diffusivity        	1
 Tolerance          	0.01

[COORDINATES]
;Node            	X-Coord           	Y-Coord
2               	3774.240          	3795.010          
3               	3677.290          	3282.550          
4               	2972.710          	3746.040          
5               	2513.850          	3088.640          
6               	2319.940          	3947.370          
7               	1668.980          	3393.350          
8               	1502.770          	4127.420          
9               	4092.800          	4252.080          
10              	2731.410          	4432.360          
11              	3511.080          	4321.330          
12              	2292.240          	4293.630          
13              	2611.980          	4774.890          
14              	1572.020          	4626.040          
15              	1308.860          	4432.130          
16              	547.090           	3753.460          
17              	4813.020          	5844.880          
18              	4328.250          	6398.890          
19              	4466.760          	5609.420          
20              	4009.700          	5484.760          
21              	3192.520          	6135.730          
22              	3760.390          	5983.380          
23              	2333.800          	5000.000          
24              	3137.120          	5637.120          
25              	3829.640          	5110.800          
26              	1281.160          	5789.470          
27              	1793.630          	5415.510          
28              	1987.530          	4889.200          
29              	1419.670          	5055.400          
30              	671.750           	5387.810          
31              	-117.730          	5138.500          
32              	644.040           	4764.540          
33              	962.600           	4293.630          
34              	3594.180          	6357.340          
35              	1710.530          	5941.830          
36              	2084.490          	5581.720          
37              	2707.760          	5304.710          
38              	1779.780          	6772.850          
39              	657.890           	6537.400          
40              	851.800           	5983.380          
41              	200.830           	5927.980          
42              	2153.740          	6329.640          
43              	2555.400          	5831.020          
44              	2596.950          	6357.340          
45              	6682.830          	6578.950          
46              	5602.490          	7340.720          
47              	4840.720          	6592.800          
48              	4355.960          	6883.660          
49              	4456.090          	7594.940          
50              	2962.820          	6837.420          
51              	1987.530          	6786.700          
52              	2610.800          	7202.220          
53              	1932.130          	7229.920          
54              	3511.080          	7963.990          
55              	4051.250          	8116.340          
56              	630.190           	7894.740          
57              	1599.720          	7963.990          
58              	2112.190          	7880.890          
59              	2666.200          	8019.390          
60              	3587.940          	6970.010          
61              	1336.570          	7174.520          
62              	5283.930          	6883.660          
63              	3137.120          	8310.250          
64              	4411.360          	7174.520          
65              	4979.220          	8116.340          
66              	6128.810          	7313.020          
67              	5990.300          	6939.060          
68              	4328.250          	8670.360          
69              	6779.780          	9141.270          
70              	5990.300          	8850.420          
71              	4932.750          	8775.710          
72              	5173.130          	9293.630          
73              	270.080           	7216.070          
74              	4217.450          	2811.630          

[VERTICES]
;Link            	X-Coord           	Y-Coord

[LABELS]
;X-Coord             Y-Coord             Label & Anchor Node

[BACKDROP]
  DIMENSIONS  	0.000             	0.000             	10000.000         	10000.000         
 UNITS          	None
 FILE           	
 OFFSET         	0.00            	0.00            

[END]
