[TITLE]


[JUNCTIONS]
;ID              	Elev        	Demand      	Pattern         
 3               	0           	30          	1               	;
 4               	0           	10          	1               	;
 5               	0           	11          	1               	;
 6               	0           	7           	1               	;
 7               	0           	5           	1               	;
 8               	0           	11          	1               	;
 9               	0           	14          	1               	;
 10              	0           	16          	1               	;
 11              	0           	13          	1               	;
 12              	0           	20          	1               	;
 13              	0           	24          	1               	;
 14              	0           	18          	1               	;
 15              	0           	18          	1               	;
 16              	0           	15          	1               	;
 17              	0           	12          	1               	;
 18              	0           	5           	1               	;
 19              	0           	8           	1               	;
 20              	0           	5           	1               	;
 21              	0           	21          	1               	;
 22              	0           	9           	1               	;
 23              	0           	4           	1               	;
 24              	0           	8           	1               	;
 25              	0           	6           	1               	;
 26              	0           	4           	1               	;

[RESERVOIRS]
;ID              	Head        	Pattern         
 27              	100         	                	;

[TANKS]
;ID              	Elevation   	InitLevel   	MinLevel    	MaxLevel    	Diameter    	MinVol      	VolCurve        	Overflow

[PIPES]
;ID              	Node1           	Node2           	Length      	Diameter    	Roughness   	MinorLoss   	Status
 1               	27              	3               	300         	600         	130         	0           	Open  	;
 2               	3               	4               	820         	600         	130         	0           	Open  	;
 3               	4               	5               	940         	500         	130         	0           	Open  	;
 4               	5               	6               	730         	300         	130         	0           	Open  	;
 5               	6               	7               	1620        	300         	130         	0           	Open  	;
 6               	7               	8               	600         	250         	130         	0           	Open  	;
 7               	4               	9               	800         	500         	130         	0           	Open  	;
 8               	6               	10              	1400        	200         	130         	0           	Open  	;
 9               	13              	8               	1175        	200         	130         	0           	Open  	;
 10              	8               	14              	750         	250         	130         	0           	Open  	;
 12              	9               	10              	700         	400         	130         	0           	Open  	;
 13              	10              	11              	310         	400         	130         	0           	Open  	;
 14              	11              	12              	500         	400         	130         	0           	Open  	;
 15              	12              	13              	1960        	400         	130         	0           	Open  	;
 16              	9               	15              	900         	400         	130         	0           	Open  	;
 17              	15              	18              	850         	350         	130         	0           	Open  	;
 18              	10              	19              	650         	350         	130         	0           	Open  	;
 19              	20              	13              	760         	200         	130         	0           	Open  	;
 20              	13              	16              	1100        	300         	130         	0           	Open  	;
 21              	14              	17              	660         	150         	130         	0           	Open  	;
 22              	19              	20              	1170        	300         	130         	0           	Open  	;
 23              	20              	21              	980         	300         	130         	0           	Open  	;
 24              	16              	21              	670         	300         	130         	0           	Open  	;
 25              	21              	17              	1080        	200         	130         	0           	Open  	;
 26              	18              	23              	750         	250         	130         	0           	Open  	;
 27              	19              	24              	900         	250         	130         	0           	Open  	;
 28              	20              	25              	650         	200         	130         	0           	Open  	;
 29              	21              	26              	1540        	200         	130         	0           	Open  	;
 30              	17              	22              	730         	150         	130         	0           	Open  	;
 31              	23              	24              	1170        	200         	130         	0           	Open  	;
 32              	24              	25              	1650        	200         	130         	0           	Open  	;
 33              	25              	26              	1320        	200         	130         	0           	Open  	;
 34              	26              	22              	3250        	200         	130         	0           	Open  	;

[PUMPS]
;ID              	Node1           	Node2           	Parameters

[VALVES]
;ID              	Node1           	Node2           	Diameter    	Type	Setting     	MinorLoss   

[TAGS]

[DEMANDS]
;Junction        	Demand      	Pattern         	Category

[STATUS]
;ID              	Status/Setting

[PATTERNS]
;ID              	Multipliers
;
 1               	0.5         

[CURVES]
;ID              	X-Value     	Y-Value

[CONTROLS]




[RULES]




[ENERGY]
 Global Efficiency  	75
 Global Price       	0
 Demand Charge      	0

[EMITTERS]
;Junction        	Coefficient

[QUALITY]
;Node            	InitQual

[SOURCES]
;Node            	Type        	Quality     	Pattern

[REACTIONS]
;Type     	Pipe/Tank       	Coefficient


[REACTIONS]
 Order Bulk            	1
 Order Tank            	1
 Order Wall            	1
 Global Bulk           	0
 Global Wall           	0
 Limiting Potential    	0
 Roughness Correlation 	0

[MIXING]
;Tank            	Model

[TIMES]
 Duration           	0:00 
 Hydraulic Timestep 	1:00 
 Quality Timestep   	0:05 
 Pattern Timestep   	1:00 
 Pattern Start      	0:00 
 Report Timestep    	1:00 
 Report Start       	0:00 
 Start ClockTime    	12 am
 Statistic          	NONE

[REPORT]
 Status             	No
 Summary            	No
 Page               	0

[OPTIONS]
 Units              	LPS
 Headloss           	H-W
 Specific Gravity   	1
 Viscosity          	1
 Trials             	40
 Accuracy           	0.001
 CHECKFREQ          	2
 MAXCHECK           	10
 DAMPLIMIT          	0
 Unbalanced         	Continue 10
 Pattern            	1
 Demand Multiplier  	1.0
 Emitter Exponent   	0.5
 Quality            	None mg/L
 Diffusivity        	1
 Tolerance          	0.01

[COORDINATES]
;Node            	X-Coord           	Y-Coord
3               	1688.693          	7812.041          
4               	1615.272          	7092.511          
5               	3186.490          	7547.724          
6               	4698.972          	7562.408          
7               	5814.978          	7577.093          
8               	6818.851          	6583.211          
9               	1350.954          	5756.241          
10              	2533.137          	5699.558          
11              	3509.545          	5756.241          
12              	4552.129          	5726.872          
13              	5521.292          	5756.241          
14              	7797.357          	5770.925          
15              	1160.059          	4875.184          
16              	6005.874          	4464.023          
17              	8399.413          	4552.129          
18              	1145.374          	3935.389          
19              	2628.488          	3964.758          
20              	4581.498          	3920.705          
21              	6226.138          	3627.019          
22              	8414.097          	2980.910          
23              	1850.220          	2496.329          
24              	4243.759          	2070.485          
25              	5800.294          	2041.116          
26              	7356.828          	2158.590          
27              	1938.326          	8957.416          

[VERTICES]
;Link            	X-Coord           	Y-Coord

[LABELS]
;X-Coord             Y-Coord             Label & Anchor Node

[BACKDROP]
  DIMENSIONS  	0.000             	0.000             	10000.000         	10000.000         
 UNITS          	None
 FILE           	
 OFFSET         	0.00            	0.00            

[END]
