[TITLE]
modena -- Bragalli, D'Ambrosio, Lee, Lodi, Toth (2008)

[JUNCTIONS]
;ID              	Elev        	Demand      	Pattern         
 1               	39.49       	0.06        	1               	; 
 2               	39.62       	1.45        	1               	; 
 3               	38.70       	5.13        	1               	; 
 4               	37.25       	2.76        	1               	; 
 5               	36.27       	0.96        	1               	; 
 6               	35.95       	0.78        	1               	; 
 7               	35.95       	1.03        	1               	; 
 8               	36.09       	2.12        	1               	; 
 9               	36.18       	1.16        	1               	; 
 10              	37.00       	1.78        	1               	; 
 11              	36.50       	0.44        	1               	; 
 12              	37.39       	0.03        	1               	; 
 13              	38.07       	0.57        	1               	; 
 14              	37.02       	0.36        	1               	; 
 15              	41.26       	3.30        	1               	; 
 16              	39.35       	0.03        	1               	; 
 17              	39.53       	2.10        	1               	; 
 18              	36.59       	4.67        	1               	; 
 19              	36.76       	0.00        	1               	; 
 20              	37.72       	1.53        	1               	; 
 21              	37.31       	4.61        	1               	; 
 22              	37.62       	1.06        	1               	; 
 23              	36.99       	1.32        	1               	; 
 24              	35.20       	2.74        	1               	; 
 25              	35.11       	0.59        	1               	; 
 26              	34.65       	0.45        	1               	; 
 27              	34.33       	0.64        	1               	; 
 28              	36.15       	7.11        	1               	; 
 29              	36.30       	0.93        	1               	; 
 30              	36.10       	0.04        	1               	; 
 31              	36.14       	0.02        	1               	; 
 32              	35.80       	2.93        	1               	; 
 33              	33.26       	2.34        	1               	; 
 34              	33.34       	1.94        	1               	; 
 35              	33.51       	1.19        	1               	; 
 36              	32.70       	1.41        	1               	; 
 37              	32.65       	2.98        	1               	; 
 38              	32.56       	2.11        	1               	; 
 39              	33.56       	7.74        	1               	; 
 40              	31.59       	4.29        	1               	; 
 41              	31.38       	7.78        	1               	; 
 42              	32.67       	3.75        	1               	; 
 43              	33.50       	2.37        	1               	; 
 44              	33.57       	1.42        	1               	; 
 45              	33.77       	0.32        	1               	; 
 46              	34.14       	1.14        	1               	; 
 47              	33.68       	1.23        	1               	; 
 48              	33.71       	1.37        	1               	; 
 49              	31.68       	1.18        	1               	; 
 50              	33.34       	1.81        	1               	; 
 51              	32.83       	0.97        	1               	; 
 52              	32.78       	0.55        	1               	; 
 53              	39.28       	2.77        	1               	; 
 54              	37.12       	0.65        	1               	; 
 55              	36.48       	1.38        	1               	; 
 56              	36.42       	8.28        	1               	; 
 57              	36.13       	1.22        	1               	; 
 58              	36.05       	3.85        	1               	; 
 59              	36.77       	2.62        	1               	; 
 60              	35.48       	2.78        	1               	; 
 61              	35.05       	1.56        	1               	; 
 62              	35.10       	1.16        	1               	; 
 63              	37.95       	1.22        	1               	; 
 64              	38.44       	2.93        	1               	; 
 65              	37.81       	1.13        	1               	; 
 66              	38.22       	1.12        	1               	; 
 67              	38.73       	0.48        	1               	; 
 68              	38.95       	1.37        	1               	; 
 69              	39.70       	2.26        	1               	; 
 70              	40.59       	1.31        	1               	; 
 71              	40.81       	1.06        	1               	; 
 72              	41.06       	0.38        	1               	; 
 73              	41.45       	1.76        	1               	; 
 74              	41.83       	0.1         	1               	; 
 75              	41.44       	0.00        	1               	; 
 76              	41.09       	4.64        	1               	; 
 77              	40.74       	1.03        	1               	; 
 78              	38.60       	3.08        	1               	; 
 79              	36.91       	1.60        	1               	; 
 80              	36.75       	4.49        	1               	; 
 81              	36.81       	1.25        	1               	; 
 82              	37.05       	0.87        	1               	; 
 83              	35.88       	0.72        	1               	; 
 84              	36.45       	0.49        	1               	; 
 85              	36.16       	3.92        	1               	; 
 86              	34.99       	0.94        	1               	; 
 87              	35.61       	3.33        	1               	; 
 88              	34.89       	4.17        	1               	; 
 89              	35.59       	1.44        	1               	; 
 90              	35.70       	1.84        	1               	; 
 91              	35.20       	2.00        	1               	; 
 92              	35.64       	2.24        	1               	; 
 93              	35.93       	0.20        	1               	; 
 94              	37.64       	2.27        	1               	; 
 95              	37.17       	1.44        	1               	; 
 96              	37.10       	2.67        	1               	; 
 97              	36.97       	0.60        	1               	; 
 98              	37.00       	2.76        	1               	; 
 99              	36.74       	0.05        	1               	; 
 100             	34.78       	2.06        	1               	; 
 101             	34.26       	3.19        	1               	; 
 102             	33.66       	4.69        	1               	; 
 103             	33.78       	1.70        	1               	; 
 104             	33.75       	0.02        	1               	; 
 105             	33.38       	0.10        	1               	; 
 106             	34.85       	1.11        	1               	; 
 107             	34.27       	1.02        	1               	; 
 108             	34.30       	0.88        	1               	; 
 109             	33.95       	2.33        	1               	; 
 110             	33.92       	0.31        	1               	; 
 111             	32.32       	0.45        	1               	; 
 112             	34.76       	2.96        	1               	; 
 113             	34.21       	8.12        	1               	; 
 114             	34.92       	1.76        	1               	; 
 115             	32.96       	5.96        	1               	; 
 116             	30.69       	0.00        	1               	; 
 117             	30.59       	6.34        	1               	; 
 118             	30.73       	0.00        	1               	; 
 119             	30.70       	0.00        	1               	; 
 120             	31.02       	3.03        	1               	; 
 121             	31.03       	1.85        	1               	; 
 122             	31.75       	1.77        	1               	; 
 123             	32.00       	1.48        	1               	; 
 124             	32.05       	0.00        	1               	; 
 125             	32.10       	1.32        	1               	; 
 126             	33.76       	2.24        	1               	; 
 127             	32.27       	1.26        	1               	; 
 128             	31.86       	5.39        	1               	; 
 129             	32.42       	1.00        	1               	; 
 130             	33.00       	1.61        	1               	; 
 131             	33.63       	4.71        	1               	; 
 132             	36.37       	2.64        	1               	; 
 133             	35.69       	2.11        	1               	; 
 134             	35.52       	1.51        	1               	; 
 135             	35.56       	0.84        	1               	; 
 136             	35.92       	1.05        	1               	; 
 137             	35.37       	1.16        	1               	; 
 138             	35.06       	2.45        	1               	; 
 139             	34.12       	1.66        	1               	; 
 140             	39.35       	0.00        	1               	; 
 141             	39.10       	0.00        	1               	; 
 142             	39.84       	0.00        	1               	; 
 143             	39.84       	0.80        	1               	; 
 144             	39.45       	0.33        	1               	; 
 145             	39.70       	0.34        	1               	; 
 146             	37.95       	1.02        	1               	; 
 147             	37.61       	1.23        	1               	; 
 148             	37.95       	0.09        	1               	; 
 149             	35.69       	0.43        	1               	; 
 150             	35.32       	1.56        	1               	; 
 151             	35.81       	0.80        	1               	; 
 152             	35.81       	1.38        	1               	; 
 153             	36.02       	0.53        	1               	; 
 154             	38.25       	0.59        	1               	; 
 155             	37.50       	2.33        	1               	; 
 156             	37.54       	0.03        	1               	; 
 157             	37.08       	0.31        	1               	; 
 158             	36.76       	8.49        	1               	; 
 159             	35.88       	0.32        	1               	; 
 160             	35.77       	0.21        	1               	; 
 161             	34.70       	0.02        	1               	; 
 162             	35.37       	1.23        	1               	; 
 163             	34.99       	0.99        	1               	; 
 164             	35.93       	0.55        	1               	; 
 165             	36.27       	0.78        	1               	; 
 166             	32.67       	0.27        	1               	; 
 167             	32.75       	0.27        	1               	; 
 168             	32.88       	0.07        	1               	; 
 169             	34.09       	9.47        	1               	; 
 170             	36.09       	2.64        	1               	; 
 171             	36.05       	1.02        	1               	; 
 172             	36.04       	0.88        	1               	; 
 173             	36.02       	0.49        	1               	; 
 174             	31.76       	0.00        	1               	; 
 175             	31.91       	1.12        	1               	; 
 176             	31.80       	0.00        	1               	; 
 177             	31.48       	0.00        	1               	; 
 178             	31.12       	0.01        	1               	; 
 179             	31.10       	0.00        	1               	; 
 180             	31.19       	0.00        	1               	; 
 181             	30.39       	0.00        	1               	; 
 182             	30.55       	0.01        	1               	; 
 183             	31.13       	1.84        	1               	; 
 184             	31.81       	0.04        	1               	; 
 185             	32.34       	1.68        	1               	; 
 186             	32.83       	2.37        	1               	; 
 187             	33.69       	0.09        	1               	; 
 188             	33.17       	1.23        	1               	; 
 189             	33.23       	3.90        	1               	; 
 190             	33.34       	1.17        	1               	; 
 191             	33.77       	1.70        	1               	; 
 192             	33.77       	2.15        	1               	; 
 193             	32.20       	4.00        	1               	; 
 194             	34.41       	4.46        	1               	; 
 195             	33.39       	0.05        	1               	; 
 196             	34.34       	0.01        	1               	; 
 197             	35.03       	4.12        	1               	; 
 198             	34.44       	0.39        	1               	; 
 199             	34.53       	0.15        	1               	; 
 200             	34.94       	1.82        	1               	; 
 201             	34.70       	3.43        	1               	; 
 202             	36.70       	0.62        	1               	; 
 203             	36.20       	4.17        	1               	; 
 204             	35.03       	2.26        	1               	; 
 205             	36.77       	1.01        	1               	; 
 206             	36.20       	0.54        	1               	; 
 207             	37.88       	0.77        	1               	; 
 208             	38.03       	0.33        	1               	; 
 209             	36.86       	1.15        	1               	; 
 210             	37.24       	1.53        	1               	; 
 211             	36.66       	0.00        	1               	; 
 212             	36.49       	0.30        	1               	; 
 213             	37.30       	.3          	1               	; 
 214             	40.30       	0.56        	1               	; 
 215             	39.85       	0.00        	1               	; 
 216             	41.00       	0.19        	1               	; 
 217             	41.16       	1.42        	1               	; 
 218             	35.05       	0.59        	1               	; 
 219             	33.92       	1.48        	1               	; 
 220             	32.14       	0.92        	1               	; 
 221             	34.17       	0.33        	1               	; 
 222             	35.10       	0.06        	1               	; 
 223             	31.55       	0.46        	1               	; 
 224             	31.75       	0.72        	1               	; 
 225             	32.07       	0.00        	1               	; 
 226             	31.94       	0.00        	1               	; 
 227             	31.66       	0.20        	1               	; 
 228             	31.04       	0.08        	1               	; 
 229             	31.05       	1.30        	1               	; 
 230             	38.49       	1.07        	1               	; 
 231             	35.68       	1.03        	1               	; 
 232             	35.39       	0.03        	1               	; 
 233             	34.89       	1.15        	1               	; 
 234             	34.86       	1.43        	1               	; 
 235             	34.99       	4.86        	1               	; 
 236             	32.54       	4.71        	1               	; 
 237             	34.41       	1.34        	1               	; 
 238             	36.16       	1.87        	1               	; 
 239             	35.30       	0.82        	1               	; 
 240             	35.17       	0.94        	1               	; 
 241             	32.92       	0.09        	1               	; 
 242             	33.07       	1.28        	1               	; 
 243             	31.91       	0.43        	1               	; 
 244             	32.00       	0.51        	1               	; 
 245             	32.05       	0.00        	1               	; 
 246             	32.05       	0.01        	1               	; 
 247             	30.70       	0.01        	1               	; 
 248             	31.33       	0.00        	1               	; 
 249             	36.30       	1.75        	1               	; 
 250             	35.83       	1.03        	1               	; 
 251             	36.95       	1.26        	1               	; 
 252             	38.01       	1.36        	1               	; 
 253             	36.65       	0.14        	1               	; 
 254             	36.91       	0.00        	1               	; 
 255             	36.77       	1.96        	1               	; 
 256             	31.50       	2.21        	1               	; 
 257             	38.65       	0.62        	1               	; 
 258             	39.54       	0.00        	1               	; 
 259             	39.58       	0.50        	1               	; 
 260             	39.58       	0.11        	1               	; 
 261             	40.55       	0.12        	1               	; 
 262             	40.79       	0.22        	1               	; 
 263             	40.95       	1.28        	1               	; 
 264             	37.76       	0.19        	1               	; 
 265             	35.96       	0.22        	1               	; 
 266             	36.81       	1.19        	1               	; 
 267             	36.21       	1.69        	1               	; 
 268             	35.61       	0.43        	1               	; 

[RESERVOIRS]
;ID              	Head        	Pattern         
 289             	100         	                	; 

[TANKS]
;ID              	Elevation   	InitLevel   	MinLevel    	MaxLevel    	Diameter    	MinVol      	VolCurve        	Overflow

[PIPES]
;ID              	Node1           	Node2           	Length      	Diameter    	Roughness   	MinorLoss   	Status
 1               	1               	16              	46.84       	125.00      	130.00      	0.00        	Open  	; 
 2               	16              	2               	267.68      	100.00      	130.00      	0.00        	Open  	; 
 3               	2               	3               	541.07      	100.00      	130.00      	0.00        	Open  	; 
 4               	4               	3               	542.29      	100.00      	130.00      	0.00        	Open  	; 
 5               	5               	4               	404.72      	100.00      	130.00      	0.00        	Open  	; 
 6               	206             	5               	151.67      	100.00      	130.00      	0.00        	Open  	; 
 7               	6               	206             	341.57      	100.00      	130.00      	0.00        	Open  	; 
 8               	140             	1               	39.91       	100.00      	130.00      	0.00        	Open  	; 
 9               	143             	140             	269.73      	100.00      	130.00      	0.00        	Open  	; 
 10              	145             	143             	45.92       	100.00      	130.00      	0.00        	Open  	; 
 11              	146             	145             	890.09      	100.00      	130.00      	0.00        	Open  	; 
 12              	148             	146             	33.79       	100.00      	130.00      	0.00        	Open  	; 
 13              	63              	148             	6.03        	100.00      	130.00      	0.00        	Open  	; 
 14              	149             	63              	367.92      	125.00      	130.00      	0.00        	Open  	; 
 15              	150             	149             	97.66       	125.00      	130.00      	0.00        	Open  	; 
 16              	60              	150             	322.19      	100.00      	130.00      	0.00        	Open  	; 
 17              	61              	60              	359.48      	100.00      	130.00      	0.00        	Open  	; 
 18              	218             	61              	199.59      	100.00      	130.00      	0.00        	Open  	; 
 19              	141             	1               	57.06       	200.00      	130.00      	0.00        	Open  	; 
 20              	142             	141             	223.41      	200.00      	130.00      	0.00        	Open  	; 
 21              	144             	142             	47.03       	200.00      	130.00      	0.00        	Open  	; 
 22              	257             	144             	782.67      	200.00      	130.00      	0.00        	Open  	; 
 23              	53              	257             	231.87      	125.00      	130.00      	0.00        	Open  	; 
 24              	251             	53              	279.84      	100.00      	130.00      	0.00        	Open  	; 
 25              	57              	251             	145.70      	100.00      	130.00      	0.00        	Open  	; 
 26              	58              	57              	81.10       	100.00      	130.00      	0.00        	Open  	; 
 27              	59              	58              	550.17      	100.00      	130.00      	0.00        	Open  	; 
 28              	53              	230             	155.63      	100.00      	130.00      	0.00        	Open  	; 
 29              	230             	252             	357.81      	100.00      	130.00      	0.00        	Open  	; 
 30              	252             	3               	267.32      	100.00      	130.00      	0.00        	Open  	; 
 31              	3               	13              	612.50      	100.00      	130.00      	0.00        	Open  	; 
 32              	12              	13              	160.50      	100.00      	130.00      	0.00        	Open  	; 
 33              	11              	12              	531.71      	100.00      	130.00      	0.00        	Open  	; 
 34              	1               	258             	41.91       	200.00      	130.00      	0.00        	Open  	; 
 35              	258             	259             	95.22       	200.00      	130.00      	0.00        	Open  	; 
 36              	259             	260             	25.13       	200.00      	130.00      	0.00        	Open  	; 
 37              	260             	215             	158.12      	200.00      	130.00      	0.00        	Open  	; 
 38              	215             	261             	95.40       	200.00      	130.00      	0.00        	Open  	; 
 39              	261             	77              	52.92       	200.00      	130.00      	0.00        	Open  	; 
 40              	77              	262             	44.92       	200.00      	130.00      	0.00        	Open  	; 
 41              	262             	216             	127.05      	200.00      	130.00      	0.00        	Open  	; 
 42              	216             	263             	56.68       	200.00      	130.00      	0.00        	Open  	; 
 43              	263             	76              	181.29      	200.00      	130.00      	0.00        	Open  	; 
 44              	217             	76              	220.90      	200.00      	130.00      	0.00        	Open  	; 
 45              	75              	217             	67.65       	200.00      	130.00      	0.00        	Open  	; 
 46              	74              	75              	36.06       	200.00      	130.00      	0.00        	Open  	; 
 47              	73              	74              	242.29      	150.00      	130.00      	0.00        	Open  	; 
 48              	72              	73              	70.45       	150.00      	130.00      	0.00        	Open  	; 
 49              	71              	72              	112.83      	150.00      	130.00      	0.00        	Open  	; 
 50              	70              	71              	105.72      	150.00      	130.00      	0.00        	Open  	; 
 51              	69              	70              	199.42      	150.00      	130.00      	0.00        	Open  	; 
 52              	68              	69              	180.64      	125.00      	130.00      	0.00        	Open  	; 
 53              	78              	68              	288.76      	125.00      	130.00      	0.00        	Open  	; 
 54              	154             	78              	69.26       	100.00      	130.00      	0.00        	Open  	; 
 55              	79              	154             	718.45      	100.00      	130.00      	0.00        	Open  	; 
 56              	155             	79              	390.78      	100.00      	130.00      	0.00        	Open  	; 
 57              	156             	155             	24.00       	125.00      	130.00      	0.00        	Open  	; 
 58              	95              	156             	504.52      	125.00      	130.00      	0.00        	Open  	; 
 59              	96              	95              	41.78       	150.00      	130.00      	0.00        	Open  	; 
 60              	97              	96              	367.93      	150.00      	130.00      	0.00        	Open  	; 
 61              	157             	97              	101.86      	150.00      	130.00      	0.00        	Open  	; 
 62              	98              	157             	125.36      	150.00      	130.00      	0.00        	Open  	; 
 63              	158             	98              	699.76      	150.00      	130.00      	0.00        	Open  	; 
 64              	136             	158             	448.05      	200.00      	130.00      	0.00        	Open  	; 
 65              	159             	136             	114.29      	200.00      	130.00      	0.00        	Open  	; 
 66              	160             	159             	197.30      	200.00      	130.00      	0.00        	Open  	; 
 67              	137             	160             	235.98      	200.00      	130.00      	0.00        	Open  	; 
 68              	135             	137             	224.87      	200.00      	130.00      	0.00        	Open  	; 
 69              	222             	135             	176.73      	125.00      	130.00      	0.00        	Open  	; 
 70              	161             	222             	76.44       	100.00      	130.00      	0.00        	Open  	; 
 71              	131             	161             	356.94      	100.00      	130.00      	0.00        	Open  	; 
 72              	242             	131             	443.79      	100.00      	130.00      	0.00        	Open  	; 
 73              	130             	242             	20.55       	100.00      	130.00      	0.00        	Open  	; 
 74              	241             	130             	113.33      	100.00      	130.00      	0.00        	Open  	; 
 75              	168             	241             	25.96       	100.00      	130.00      	0.00        	Open  	; 
 76              	167             	168             	145.04      	100.00      	130.00      	0.00        	Open  	; 
 77              	166             	167             	55.24       	100.00      	130.00      	0.00        	Open  	; 
 78              	129             	166             	208.22      	100.00      	130.00      	0.00        	Open  	; 
 79              	125             	129             	190.43      	100.00      	130.00      	0.00        	Open  	; 
 80              	246             	125             	70.98       	100.00      	130.00      	0.00        	Open  	; 
 81              	245             	246             	52.04       	100.00      	130.00      	0.00        	Open  	; 
 82              	124             	245             	34.03       	100.00      	130.00      	0.00        	Open  	; 
 83              	225             	124             	79.47       	100.00      	130.00      	0.00        	Open  	; 
 84              	226             	225             	277.99      	100.00      	130.00      	0.00        	Open  	; 
 85              	227             	176             	86.03       	100.00      	130.00      	0.00        	Open  	; 
 86              	177             	227             	296.25      	100.00      	130.00      	0.00        	Open  	; 
 87              	180             	177             	111.30      	100.00      	130.00      	0.00        	Open  	; 
 88              	178             	180             	123.37      	100.00      	130.00      	0.00        	Open  	; 
 89              	179             	178             	196.27      	100.00      	130.00      	0.00        	Open  	; 
 90              	228             	179             	198.46      	100.00      	130.00      	0.00        	Open  	; 
 91              	229             	228             	75.62       	100.00      	130.00      	0.00        	Open  	; 
 92              	121             	229             	110.14      	100.00      	130.00      	0.00        	Open  	; 
 93              	118             	121             	423.57      	100.00      	130.00      	0.00        	Open  	; 
 94              	117             	118             	116.57      	100.00      	130.00      	0.00        	Open  	; 
 95              	181             	117             	100.61      	100.00      	130.00      	0.00        	Open  	; 
 96              	182             	181             	164.84      	100.00      	130.00      	0.00        	Open  	; 
 97              	116             	182             	47.49       	100.00      	130.00      	0.00        	Open  	; 
 98              	247             	116             	87.54       	100.00      	130.00      	0.00        	Open  	; 
 99              	49              	184             	189.27      	150.00      	130.00      	0.00        	Open  	; 
 100             	184             	41              	244.80      	150.00      	130.00      	0.00        	Open  	; 
 101             	41              	248             	293.47      	150.00      	130.00      	0.00        	Open  	; 
 102             	248             	40              	308.64      	150.00      	130.00      	0.00        	Open  	; 
 103             	40              	39              	566.57      	150.00      	130.00      	0.00        	Open  	; 
 104             	176             	226             	95.14       	100.00      	130.00      	0.00        	Open  	; 